Circuit: * E:\Data Kuliah\Tingkat 4\TA\TA2\source code and schematic\Bridge_SHMS_WSN\WIM\Charge Amp\charge amplifier.asc

Limiting rise time of source v4 to 0.003
Limiting fall time of source v4 to 0.003
Direct Newton iteration failed to find .op point.  (Use ".option noopiter" to skip.)
Starting Gmin stepping
Gmin = 10
vernier = 0.5
vernier = 0.25
vernier = 0.125
Gmin = 5.5165
vernier = 0.0625
vernier = 0.03125
vernier = 0.015625
vernier = 0.0078125
Gmin = 5.49501
vernier = 0.00390625
vernier = 0.00195313
vernier = 0.000976563
vernier = 0.000488281
Gmin = 5.50104
Gmin = 0
Gmin stepping failed

Starting source stepping with srcstepmethod=0
Source Step = 3.0303%
Source Step = 33.3333%
Source Step = 63.6364%
Source Step = 93.9394%
Source stepping succeeded in finding the operating point.


Date: Wed Jul 08 18:21:53 2020
Total elapsed time: 3.482 seconds.

tnom = 27
temp = 27
method = modified trap
totiter = 202939
traniter = 201226
tranpoints = 100086
accept = 100071
rejected = 15
matrix size = 33
fillins = 58
solver = Normal
Matrix Compiler1: 4.07 KB object code size  1.3/1.0/[0.5]
Matrix Compiler2:     264 opcodes  1.2/[1.2]/1.8

